 &time_control
 run_days                            = 9,
 run_hours                           = 0,
 run_minutes                         = 0,
 run_seconds                         = 0,
 start_year                          = 2009,
 start_month                         = 03, 
 start_day                           = 16,
 start_hour                          = 00,
 end_year                            = 2009,
 end_month                           = 03,
 end_day                             = 24,
 end_hour                            = 00,
 interval_seconds                    = 21600
 input_from_file                     = .true.,
 history_interval                    = 60,  
 frames_per_outfile                  = 1,
 restart                             = .false.,
 restart_interval                    = 7200,
 io_form_history                     = 2
 io_form_restart                     = 2
 io_form_input                       = 2
 io_form_boundary                    = 2
 auxinput4_inname                    = 'wrflowinp_d<domain>',
 auxinput4_interval_m                = 360, 360, 360,
 io_form_auxinput4                   = 2 
 /

 &domains
 time_step                           = 120,
 time_step_fract_num                 = 0,
 time_step_fract_den                 = 1,
 max_dom                             = 1,
 e_we                                = 176,
 e_sn                                = 132,
 e_vert                              = 50,
 p_top_requested                     = 5000,
 num_metgrid_levels                  = 27,
 num_metgrid_soil_levels             = 4,
 dx                                  = 25000,
 dy                                  = 25000,
 grid_id                             = 1,   
 parent_id                           = 0,   
 i_parent_start                      = 1,   
 j_parent_start                      = 1,   
 parent_grid_ratio                   = 1,   
 parent_time_step_ratio              = 1,   
 feedback                            = 0,
 smooth_option                       = 0,
 sfcp_to_sfcp = .true. 
 /

 &physics
! Microphysics 
 mp_physics                          = 10,
 mp_zero_out                         = 2,
 mp_zero_out_thresh                  = 1.e-8,
! Radiation
 ra_lw_physics                       = 4,
 ra_sw_physics                       = 4,
 radt                                = 30,
 progn                               = 1,
 icloud                              = 1,
! Boundary layer
 bl_pbl_physics                      = 6,
 bldt                                = 0,
! Surface layer
 sf_sfclay_physics                   = 5,
! Land surface
 sf_surface_physics                  = 2,
 surface_input_source                = 1,
 num_soil_layers                     = 4,
 num_land_cat                        = 21,
 sf_urban_physics                    = 0,
 sst_update                          = 1,
 sst_skin                            = 1,
 usemonalb                           = .true.,
 rdmaxalb                            = .true.,
 rdlai2d                             = .false.,
 tmn_update                          = 1,
 lagday                              = 150,
 fractional_seaice                   = 1,
 seaice_albedo_opt                   = 1,
 seaice_albedo_default               = 0.65,
 seaice_snowdepth_opt                = 0,
 seaice_snowdepth_max                = 1.e10,
 seaice_snowdepth_min                = 0.001,
 seaice_thickness_opt                = 0,
 seaice_thickness_default            = 3.0,
! Cumulus
 cu_physics                          = 10,   
 cudt                                = 0,    
 cu_diag                             = 0,
 shallowcu_forced_ra                 = .true.,
 cu_rad_feedback                     = .true.,
 numBins                             = 21,
 thBinSize                           = 0.1,
 rBinSize                            = 1.0e-4,
 minDeepFreq                         = 0.333,
 minShallowFreq                      = 1.0e-2
 shcu_aerosols_opt                   = 2,
 /

 &fdda
 grid_fdda                           = 1,
 gfdda_inname                        = "wrffdda_d<domain>"
 gfdda_interval_m                    = 360, 
 gfdda_end_h                         = 10000,
 io_form_gfdda                       = 2
 fgdt                                = 0,
 if_no_pbl_nudging_uv                = 1, 
 if_no_pbl_nudging_t                 = 1,  
 if_no_pbl_nudging_q                 = 1,   
 if_no_pbl_nudging_ph                = 1,  
 if_zfac_uv                          = 0,  
 k_zfac_uv                           = 10,  
 if_zfac_t                           = 0,   
 k_zfac_t                            = 10,  
 if_zfac_q                           = 0,  
 k_zfac_q                            = 10, 
 if_zfac_ph                          = 0,  
 k_zfac_ph                           = 10, 
 guv                                 = 0.0003,
 gt                                  = 0.0003,
 gq                                  = 0.0000,
 gph                                 = 0.0003, 
 grid_sfdda                          = 0,   
 fgdtzero                            = 0,  
 if_ramping                          = 0,
 dtramp_min                          = 60.0,
 xwavenum                            = 50,
 ywavenum                            = 50,
 /

 &dynamics
 hybrid_opt                          = 0, 
 w_damping                           = 1,
 diff_opt                            = 1,    
 km_opt                              = 4,    
 diff_6th_opt                        = 0,    
 diff_6th_factor                     = 0.12, 
 base_temp                           = 290.
 damp_opt                            = 3,
 zdamp                               = 5000.,
 dampcoef                            = 0.2,  
 khdif                               = 0,    
 kvdif                               = 0,    
 non_hydrostatic                     = .true.,
 moist_adv_opt                       = 2,          
 scalar_adv_opt                      = 2,
 tke_adv_opt                         = 2,
 chem_adv_opt                        = 2,          
 use_theta_m                         = 0,
 /

 &bdy_control
 spec_bdy_width                      = 5,
 spec_zone                           = 1,
 relax_zone                          = 4,
 specified                           = .true.
 spec_exp                            = 0,
 /

 &grib2
 /

 &namelist_quilt
 nio_tasks_per_group = 0,
 nio_groups = 1,
 /
